/*--------------------------------*- C++ -*----------------------------------*\
  =========                 |
  \\      /  F ield         | OpenFOAM: The Open Source CFD Toolbox
   \\    /   O peration     | Website:  https://openfoam.org
    \\  /    A nd           | Version:  8
     \\/     M anipulation  |
\*---------------------------------------------------------------------------*/
FoamFile
{
    version     2.0;
    format      ascii;
    class       dictionary;
    location    "system";
    object      controlDict;
}
// * * * * * * * * * * * * * * * * * * * * * * * * * * * * * * * * * * * * * //

application     particleFoam;

startFrom       startTime;//latestTime;

startTime       0;  //0;    //4;//30;

stopAt          endTime;

endTime         98.5;   //0.01;//30;//37.5;//98.5;     //0.1;//4;//30;//34;

deltaT          0.01;

writeControl    runTime;   //timeStep;//runTime;

writeInterval   0.5;   //0.01;//0.5;//1;     //0.1;//1;//0.1;

purgeWrite      0;

writeFormat     ascii;

writePrecision  12;

writeCompression off;

timeFormat      general;

timePrecision   6;

runTimeModifiable true;



libs
(
    "libWindNinja.so"
    "libmyLagrangianModels.so"
);


//functions
//{
//    #includeFunc  residuals
//}




// ************************************************************************* //
