/*--------------------------------*- C++ -*----------------------------------*\
  =========                 |
  \\      /  F ield         | OpenFOAM: The Open Source CFD Toolbox
   \\    /   O peration     | Website:  https://openfoam.org
    \\  /    A nd           | Version:  8
     \\/     M anipulation  |
\*---------------------------------------------------------------------------*/
FoamFile
{
    version     2.0;
    format      ascii;
    class       dictionary;
    location    "system";
    object      controlDict;
}
// * * * * * * * * * * * * * * * * * * * * * * * * * * * * * * * * * * * * * //

application     particleFoam;

startFrom       startTime;      //startTime;//latestTime;

startTime       0;              //0;//3;//30;

stopAt          endTime;

endTime         0.01;           //0.01;//3;//30;//33;

deltaT          0.01;

writeControl    runTime;        //timeStep;//runTime;

writeInterval   0.01;           //0.01;//0.5;//1;//0.5;

purgeWrite      0;

writeFormat     ascii;

writePrecision  12;

writeCompression off;

timeFormat      general;

timePrecision   6;

runTimeModifiable true;



libs
(
    "libWindNinja.so"
    "libmyWindNinjaDragkEpsilon.so"
    "libmyLagrangianModels.so"
);


//functions
//{
//    #includeFunc  residuals
//}




// ************************************************************************* //
